  12
  -246.83786799219965     
 O     0.08709271     1.33697996    -0.00160060
 N     1.19117196    -0.87198083     0.00541298
 C     0.00153198    -0.01860288     0.00138075
 C     2.57329701    -0.18309371     0.00038850
 C    -1.40451541    -0.83895652    -0.00028925
 H     1.08207014    -1.94647477     0.00000508
 H     3.42046644    -1.01826264    -0.00411353
 H    -2.28023574    -0.04225471    -0.00274737
 H    -1.47600740    -1.51595677    -0.96923065
 H    -1.47973012    -1.51499627     0.96916205
 H     2.68480831     0.51056655    -0.96275765
 H     2.69308312     0.50809259     0.96441170
